117
  CCTOOLS-0919241031

 76 79  0  0  1  0  0  0  0  0999 V2000
   -1.8780    1.7490   -3.2500 C   0  0  0  0  0
   -1.9280    0.4660   -2.7030 C   0  0  0  0  0
   -2.9480   -0.4060   -3.0810 C   0  0  0  0  0
   -3.9080    0.0060   -3.9820 C   0  0  0  0  0
   -3.8530    1.2790   -4.5200 C   0  0  0  0  0
   -2.8400    2.1480   -4.1540 C   0  0  0  0  0
   -4.4130    0.5930    1.0530 C   0  0  0  0  0
   -3.1950    0.6790    0.4110 C   0  0  0  0  0
   -2.4080   -0.4630    0.2570 C   0  0  0  0  0
   -2.8610   -1.6880    0.7510 C   0  0  0  0  0
   -4.0780   -1.7610    1.3960 C   0  0  0  0  0
   -4.8550   -0.6230    1.5450 C   0  0  0  0  0
   -6.0490   -0.7020    2.1740 F   0  0  0  0  0
   -1.1040   -0.3780   -0.4290 C   0  0  0  0  0
    2.0770   -0.3190   -5.3460 C   0  0  0  0  0
    2.9100   -1.2210   -5.9960 C   0  0  0  0  0
    3.4850   -0.8810   -7.2040 C   0  0  0  0  0
    3.2330    0.3560   -7.7680 C   0  0  0  0  0
    2.4040    1.2560   -7.1240 C   0  0  0  0  0
    1.8210    0.9200   -5.9180 C   0  0  0  0  0
    1.8240    1.8120    9.5350 O   0  0  0  0  0
    1.5880   -0.2500    8.7800 O   0  0  0  0  0
    2.3290   -0.6240    6.2470 O   0  0  0  0  0
    1.6110    0.9330    8.5430 C   0  0  0  0  0
    1.4010    1.4230    7.1330 C   0  0  0  0  0
    1.1820    0.2270    6.2050 C   0  0  0  0  0
    0.9690    0.7250    4.7740 C   0  0  0  0  0
    0.7500   -0.4700    3.8450 C   0  0  0  0  0
    0.5370    0.0270    2.4140 C   0  0  0  0  0
    0.3180   -1.1680    1.4850 C   0  0  0  0  0
    0.1140   -0.6910    0.1150 N   0  0  0  0  0
   -0.8990    0.0320   -1.7320 C   0  0  0  0  0
    0.5530   -0.0460   -1.9540 C   0  0  0  0  0
    1.2760    0.2880   -3.1910 C   0  0  0  0  0
    1.4920   -0.6610   -4.1230 N   0  0  0  0  0
    1.6790    1.4210   -3.3720 O   0  0  0  0  0
    1.0970   -0.5000   -0.7840 C   0  0  0  0  0
    2.5640   -0.7410   -0.5390 C   0  0  0  0  0
    3.0790   -1.7940   -1.5230 C   0  0  0  0  0
    3.3360    0.5640   -0.7400 C   0  0  0  0  0
    1.8960   -1.3220    3.8870 O   0  0  0  0  0
   -1.0880    2.4280   -2.9650 H   0  0  0  0  0
   -2.9920   -1.4010   -2.6610 H   0  0  0  0  0
   -4.7010   -0.6670   -4.2710 H   0  0  0  0  0
   -4.6040    1.5960   -5.2280 H   0  0  0  0  0
   -2.8030    3.1410   -4.5780 H   0  0  0  0  0
   -5.0230    1.4760    1.1720 H   0  0  0  0  0
   -2.8520    1.6280    0.0280 H   0  0  0  0  0
   -2.2570   -2.5760    0.6350 H   0  0  0  0  0
   -4.4280   -2.7070    1.7820 H   0  0  0  0  0
    3.1070   -2.1870   -5.5560 H   0  0  0  0  0
    4.1330   -1.5810   -7.7100 H   0  0  0  0  0
    3.6840    0.6200   -8.7130 H   0  0  0  0  0
    2.2090    2.2220   -7.5660 H   0  0  0  0  0
    1.1740    1.6240   -5.4150 H   0  0  0  0  0
    1.9590    1.4980   10.4390 H   0  0  0  0  0
    3.0820   -0.0940    5.9520 H   0  0  0  0  0
    2.2800    1.9800    6.8080 H   0  0  0  0  0
    0.5270    2.0730    7.1010 H   0  0  0  0  0
    0.3030   -0.3280    6.5300 H   0  0  0  0  0
    1.8480    1.2820    4.4480 H   0  0  0  0  0
    0.0950    1.3750    4.7420 H   0  0  0  0  0
   -0.1280   -1.0270    4.1710 H   0  0  0  0  0
    1.4160    0.5840    2.0880 H   0  0  0  0  0
   -0.3370    0.6770    2.3820 H   0  0  0  0  0
   -0.5600   -1.7250    1.8110 H   0  0  0  0  0
    1.1920   -1.8180    1.5180 H   0  0  0  0  0
    1.2430   -1.5810   -3.9450 H   0  0  0  0  0
    2.7090   -1.0960    0.4800 H   0  0  0  0  0
    2.5290   -2.7240   -1.3800 H   0  0  0  0  0
    2.9340   -1.4390   -2.5430 H   0  0  0  0  0
    4.1400   -1.9680   -1.3460 H   0  0  0  0  0
    2.9690    1.3140   -0.0390 H   0  0  0  0  0
    4.3970    0.3890   -0.5630 H   0  0  0  0  0
    3.1910    0.9180   -1.7600 H   0  0  0  0  0
    2.6500   -0.7920    3.5920 H   0  0  0  0  0
  1  2  2  0  0  0
  1  6  1  0  0  0
  1 42  1  0  0  0
  2  3  1  0  0  0
  2 32  1  0  0  0
  3  4  2  0  0  0
  3 43  1  0  0  0
  4  5  1  0  0  0
  4 44  1  0  0  0
  5  6  2  0  0  0
  5 45  1  0  0  0
  6 46  1  0  0  0
  7  8  2  0  0  0
  7 12  1  0  0  0
  7 47  1  0  0  0
  8  9  1  0  0  0
  8 48  1  0  0  0
  9 10  2  0  0  0
  9 14  1  0  0  0
 10 11  1  0  0  0
 10 49  1  0  0  0
 11 12  2  0  0  0
 11 50  1  0  0  0
 12 13  1  0  0  0
 14 31  1  0  0  0
 14 32  2  0  0  0
 15 16  2  0  0  0
 15 20  1  0  0  0
 15 35  1  0  0  0
 16 17  1  0  0  0
 16 51  1  0  0  0
 17 18  2  0  0  0
 17 52  1  0  0  0
 18 19  1  0  0  0
 18 53  1  0  0  0
 19 20  2  0  0  0
 19 54  1  0  0  0
 20 55  1  0  0  0
 21 24  1  0  0  0
 21 56  1  0  0  0
 22 24  2  0  0  0
 23 26  1  0  0  0
 23 57  1  0  0  0
 24 25  1  0  0  0
 25 26  1  0  0  0
 25 58  1  0  0  0
 25 59  1  0  0  0
 26 27  1  0  0  0
 26 60  1  0  0  0
 27 28  1  0  0  0
 27 61  1  0  0  0
 27 62  1  0  0  0
 28 29  1  0  0  0
 28 41  1  0  0  0
 28 63  1  0  0  0
 29 30  1  0  0  0
 29 64  1  0  0  0
 29 65  1  0  0  0
 30 31  1  0  0  0
 30 66  1  0  0  0
 30 67  1  0  0  0
 31 37  1  0  0  0
 32 33  1  0  0  0
 33 34  1  0  0  0
 33 37  2  0  0  0
 34 35  1  0  0  0
 34 36  2  0  0  0
 35 68  1  0  0  0
 37 38  1  0  0  0
 38 39  1  0  0  0
 38 40  1  0  0  0
 38 69  1  0  0  0
 39 70  1  0  0  0
 39 71  1  0  0  0
 39 72  1  0  0  0
 40 73  1  0  0  0
 40 74  1  0  0  0
 40 75  1  0  0  0
 41 76  1  0  0  0
M  END
$$$$
